/*--------------------------------*- C++ -*----------------------------------*\
  =========                 |
  \\      /  F ield         | OpenFOAM: The Open Source CFD Toolbox
   \\    /   O peration     | Website:  https://openfoam.org
    \\  /    A nd           | Version:  7
     \\/     M anipulation  |
\*---------------------------------------------------------------------------*/
FoamFile
{
    version     2.0;
    format      ascii;
    class       polyBoundaryMesh;
    location    "constant/polyMesh";
    object      boundary;
}
// * * * * * * * * * * * * * * * * * * * * * * * * * * * * * * * * * * * * * //

6
(
    inlet
    {
        type            patch;
        nFaces          783;
        startFace       44214;
    }
    outlet
    {
        type            patch;
        nFaces          0;
        startFace       44997;
    }
    constraint
    {
        type            symmetry;
        inGroups        List<word> 1(symmetry);
        nFaces          1813;
        startFace       44997;
    }
    wall
    {
        type            wall;
        inGroups        List<word> 1(wall);
        nFaces          783;
        startFace       46810;
    }
    defaultFaces
    {
        type            wall;
        inGroups        List<word> 1(wall);
        nFaces          390;
        startFace       47593;
    }
    procBoundary0to1
    {
        type            processor;
        inGroups        List<word> 1(processor);
        nFaces          621;
        startFace       47983;
        matchTolerance  0.0001;
        transform       unknown;
        myProcNo        0;
        neighbProcNo    1;
    }
)

// ************************************************************************* //
