/*--------------------------------*- C++ -*----------------------------------*\
  =========                 |
  \\      /  F ield         | OpenFOAM: The Open Source CFD Toolbox
   \\    /   O peration     | Website:  https://openfoam.org
    \\  /    A nd           | Version:  7
     \\/     M anipulation  |
\*---------------------------------------------------------------------------*/
FoamFile
{
    version     2.0;
    format      ascii;
    class       polyBoundaryMesh;
    location    "constant/polyMesh";
    object      boundary;
}
// * * * * * * * * * * * * * * * * * * * * * * * * * * * * * * * * * * * * * //


4
(
patch_0_0
{
    type wall;
    nFaces 15305;
    startFace 448997;
}

patch_1_0
{
    type wall;
    nFaces 1570;
    startFace 464302;
}

patch_2_0
{
    type wall;
    nFaces 1091;
    startFace 465872;
}

patch_3_0
{
    type wall;
    nFaces 11794;
    startFace 466963;
}

)


// ************************************************************************* //
