/*--------------------------------*- C++ -*----------------------------------*\
  =========                 |
  \\      /  F ield         | OpenFOAM: The Open Source CFD Toolbox
   \\    /   O peration     | Website:  https://openfoam.org
    \\  /    A nd           | Version:  7
     \\/     M anipulation  |
\*---------------------------------------------------------------------------*/
FoamFile
{
    version     2.0;
    format      ascii;
    class       polyBoundaryMesh;
    location    "constant/polyMesh";
    object      boundary;
}
// * * * * * * * * * * * * * * * * * * * * * * * * * * * * * * * * * * * * * //


5
(
patch_0_0
{
    type wall;
    nFaces 2302;
    startFace 176655;
}

patch_1_0
{
    type wall;
    nFaces 783;
    startFace 178957;
}

patch_2_0
{
    type wall;
    nFaces 494;
    startFace 179740;
}

patch_3_0
{
    type wall;
    nFaces 6740;
    startFace 180234;
}

patch_4_0
{
    type wall;
    nFaces 4388;
    startFace 186974;
}

)


// ************************************************************************* //
