/*--------------------------------*- C++ -*----------------------------------*\
  =========                 |
  \\      /  F ield         | OpenFOAM: The Open Source CFD Toolbox
   \\    /   O peration     | Website:  https://openfoam.org
    \\  /    A nd           | Version:  7
     \\/     M anipulation  |
\*---------------------------------------------------------------------------*/
FoamFile
{
    version     2.0;
    format      ascii;
    class       dictionary;
    location    "constant/polyMesh";
    object      meshMetaDict;
}
// * * * * * * * * * * * * * * * * * * * * * * * * * * * * * * * * * * * * * //

surfaceFile     "Common_Geometry.fms";

surfaceMeta
{
    nPoints         4947;
    nFacets         9989;
    nPatches        5;
    nFeatureEdges   4993;
    patches
    {
        patch_0_0
        {
            type            empty;
            nFacets         7318;
        }
        patch_1_0
        {
            type            empty;
            nFacets         18;
        }
        patch_2_0
        {
            type            empty;
            nFacets         423;
        }
        patch_3_0
        {
            type            empty;
            nFacets         118;
        }
        patch_4_0
        {
            type            empty;
            nFacets         2112;
        }
    }
    pointSubsets
    {
    }
    facetSubsets
    {
    }
    featureEdgeSubsets
    {
    }
}
